<?xml version="1.0" encoding="UTF-8"?>
<networkml xmlns="http://morphml.org/networkml/schema" xmlns:meta="http://morphml.org/metadata/schema" xmlns:xsi="http://www.w3.org/2001/XMLSchema-instance" xsi:schemaLocation="http://morphml.org/networkml/schema  http://www.neuroml.org/NeuroMLValidator/NeuroMLFiles/Schemata/v1.8.1/Level3/NetworkML_v1.8.1.xsd" lengthUnits="micrometer">

<meta:notes>

Network structure (NeuroML 1.x) for project: twoNeurons saved with neuroConstruct v1.7.0 on: 12:24:30, 06-Oct-13

Cell Group: PurkinjeCellGroup contains 1 cells
Cell Group: SimpleCellGroup contains 1 cells

Network connection: NetConn_SimpleCellGroup_PurkinjeCellGroup contains 1 individual synaptic connections

</meta:notes>

<meta:properties>
    <meta:property tag="neuroConstruct_random_seed" value="149073880"/>

    <meta:property tag="neuroConstruct_sim_config" value="Default Simulation Configuration"/>

    <meta:property tag="neuroConstruct_sim_duration" value="100.0"/>

    <meta:property tag="neuroConstruct_sim_time_step" value="0.02"/>

    <meta:property tag="neuroConstruct_temperature" value="6.3"/>
</meta:properties>

        <populations>
    <population name="PurkinjeCellGroup" cell_type="PurkinjeCell_t">
        <meta:properties>
            <meta:property tag="color" value="0.87890625 0.93359375 0.7109375"/>

        </meta:properties>
        <instances size="1">
            <instance id="0">
                <location x="37.674034" y="61.221123" z="69.71072"/>
            </instance>
        </instances>
    </population>
    <population name="SimpleCellGroup" cell_type="SimpleCell_t">
        <meta:properties>
            <meta:property tag="color" value="0.4375 0.09765625 0.6875"/>

        </meta:properties>
        <instances size="1">
            <instance id="0">
                <location x="78.87234" y="78.79815" z="71.72526"/>
            </instance>
        </instances>
    </population>
</populations>



        <projections units="Physiological Units">
    <projection name="NetConn_SimpleCellGroup_PurkinjeCellGroup" source="SimpleCellGroup" target="PurkinjeCellGroup">
        <synapse_props synapse_type="SingleSyn1" internal_delay="5.0" weight="1.0" threshold="-20.0">
        </synapse_props>
        <connections size="1">
            <connection id="0" pre_cell_id="0" pre_segment_id="5" pre_fraction_along="0.27342016" post_cell_id="0">
            </connection>
        </connections>
    </projection>
</projections>

        <inputs units="Physiological Units">
    <input name="SampleIClamp">
        <random_stim frequency="0.05" synaptic_mechanism="DoubExpSyn"/>
        <target population="PurkinjeCellGroup">
            <sites size="1">
                <site cell_id="0" segment_id="0" fraction_along="0.5"/>
            </sites>
        </target>
    </input>
</inputs>





</networkml>